data/open_dss/uhs14_1247/uhs14_1247--udt5493/Loads_original.dss
New Load.load_p1ulv3823 conn=wye bus1=p1ulv3823.1.2 kV=0.2080002494301389 Vminpu=0.8 Vmaxpu=1.2 model=1 kW=2.77003 kvar=0.5595731887375364 Phases=2

New Load.load_p1ulv3824 conn=wye bus1=p1ulv3824.1.2 kV=0.2080002494301389 Vminpu=0.8 Vmaxpu=1.2 model=1 kW=3.10003 kvar=0.6294879397252322 Phases=2

New Load.load_p1ulv3825 conn=wye bus1=p1ulv3825.1.2 kV=0.2080002494301389 Vminpu=0.8 Vmaxpu=1.2 model=1 kW=3.02003 kvar=0.6100756371530351 Phases=2

New Load.load_p1ulv3826 conn=wye bus1=p1ulv3825.1.2 kV=0.2080002494301389 Vminpu=0.8 Vmaxpu=1.2 model=1 kW=3.33003 kvar=0.6796683639857601 Phases=2

New Load.load_p1ulv3827 conn=wye bus1=p1ulv3827.1.2 kV=0.2080002494301389 Vminpu=0.8 Vmaxpu=1.2 model=1 kW=2.64003 kvar=0.5402110512846091 Phases=2

New Load.load_p1ulv3828 conn=wye bus1=p1ulv3828.1.2 kV=0.2080002494301389 Vminpu=0.8 Vmaxpu=1.2 model=1 kW=3.29003 kvar=0.6697886084538411 Phases=2

New Load.load_p1ulv3829 conn=wye bus1=p1ulv3829.1.2 kV=0.2080002494301389 Vminpu=0.8 Vmaxpu=1.2 model=1 kW=2.81003 kvar=0.570600928141371 Phases=2

New Load.load_p1ulv3830 conn=wye bus1=p1ulv3830.1.2 kV=0.2080002494301389 Vminpu=0.8 Vmaxpu=1.2 model=1 kW=2.95003 kvar=0.6005709639720869 Phases=2

New Load.load_p1ulv3831 conn=wye bus1=p1ulv3831.1.2 kV=0.2080002494301389 Vminpu=0.8 Vmaxpu=1.2 model=1 kW=3.09003 kvar=0.6306836979747686 Phases=2

New Load.load_p1ulv3832 conn=wye bus1=p1ulv3832.1.2 kV=0.2080002494301389 Vminpu=0.8 Vmaxpu=1.2 model=1 kW=3.45003 kvar=0.7005584709471337 Phases=2

New Load.load_p1ulv3833 conn=wye bus1=p1ulv3833.1.2 kV=0.2080002494301389 Vminpu=0.8 Vmaxpu=1.2 model=1 kW=3.0700300000000005 kvar=0.620176126836135 Phases=2

New Load.load_p1ulv3834 conn=wye bus1=p1ulv3834.1.2 kV=0.2080002494301389 Vminpu=0.8 Vmaxpu=1.2 model=1 kW=2.93003 kvar=0.5903528595437461 Phases=2

New Load.load_p1ulv3835 conn=wye bus1=p1ulv3835.1.2 kV=0.2080002494301389 Vminpu=0.8 Vmaxpu=1.2 model=1 kW=1.9800200000000001 kvar=0.39998343164662364 Phases=2

New Load.load_p1ulv3836 conn=wye bus1=p1ulv3836.1.2 kV=0.2080002494301389 Vminpu=0.8 Vmaxpu=1.2 model=1 kW=2.00002 kvar=0.4102885228098566 Phases=2

New Load.load_p1ulv3837 conn=wye bus1=p1ulv3837.1.2 kV=0.2080002494301389 Vminpu=0.8 Vmaxpu=1.2 model=1 kW=2.98003 kvar=0.6097828960881785 Phases=2

New Load.load_p1ulv3838 conn=wye bus1=p1ulv3838.1.2 kV=0.2080002494301389 Vminpu=0.8 Vmaxpu=1.2 model=1 kW=2.8200300000000005 kvar=0.5696736784206362 Phases=2

New Load.load_p1ulv3839 conn=wye bus1=p1ulv3839.1.2 kV=0.2080002494301389 Vminpu=0.8 Vmaxpu=1.2 model=1 kW=2.95003 kvar=0.6005709639720869 Phases=2

New Load.load_p1ulv3840 conn=wye bus1=p1ulv3840.1.2 kV=0.2080002494301389 Vminpu=0.8 Vmaxpu=1.2 model=1 kW=2.72003 kvar=0.5494726990544365 Phases=2

New Load.load_p1ulv3841 conn=wye bus1=p1ulv3840.1.2 kV=0.2080002494301389 Vminpu=0.8 Vmaxpu=1.2 model=1 kW=2.87003 kvar=0.5797741681037358 Phases=2

New Load.load_p1ulv3842 conn=wye bus1=p1ulv3842.1.2 kV=0.2080002494301389 Vminpu=0.8 Vmaxpu=1.2 model=1 kW=1.67002 kvar=0.339984854815939 Phases=2

New Load.load_p1ulv3843 conn=wye bus1=p1ulv3843.1.2 kV=0.2080002494301389 Vminpu=0.8 Vmaxpu=1.2 model=1 kW=2.60003 kvar=0.5306733382023273 Phases=2

New Load.load_p1ulv3844 conn=wye bus1=p1ulv3844.1.2 kV=0.2080002494301389 Vminpu=0.8 Vmaxpu=1.2 model=1 kW=3.25003 kvar=0.659946738820333 Phases=2

New Load.load_p1ulv3845 conn=wye bus1=p1ulv3845.1.2 kV=0.2080002494301389 Vminpu=0.8 Vmaxpu=1.2 model=1 kW=1.90002 kvar=0.3897743018115738 Phases=2

New Load.load_p1ulv3846 conn=wye bus1=p1ulv3845.1.2 kV=0.2080002494301389 Vminpu=0.8 Vmaxpu=1.2 model=1 kW=2.00002 kvar=0.4102885228098566 Phases=2

New Load.load_p1ulv3847 conn=wye bus1=p1ulv3847.1.2 kV=0.2080002494301389 Vminpu=0.8 Vmaxpu=1.2 model=1 kW=2.74003 kvar=0.5606733585797765 Phases=2

New Load.load_p1ulv3848 conn=wye bus1=p1ulv3848.1.2 kV=0.2080002494301389 Vminpu=0.8 Vmaxpu=1.2 model=1 kW=3.13003 kvar=0.6404763570309296 Phases=2

New Load.load_p1ulv3849 conn=wye bus1=p1ulv3849.1.2 kV=0.2080002494301389 Vminpu=0.8 Vmaxpu=1.2 model=1 kW=3.31003 kvar=0.6703963496338274 Phases=2

New Load.load_p1ulv3850 conn=wye bus1=p1ulv3847.1.2 kV=0.2080002494301389 Vminpu=0.8 Vmaxpu=1.2 model=1 kW=2.60003 kvar=0.5306733382023273 Phases=2

New Load.load_p1ulv3851 conn=wye bus1=p1ulv3851.1.2 kV=0.2080002494301389 Vminpu=0.8 Vmaxpu=1.2 model=1 kW=2.63003 kvar=0.5299077931576943 Phases=2

New Load.load_p1ulv3852 conn=wye bus1=p1ulv3852.1.2 kV=0.2080002494301389 Vminpu=0.8 Vmaxpu=1.2 model=1 kW=3.66004 kvar=0.7393639251946486 Phases=2

New Load.load_p1ulv3853 conn=wye bus1=p1ulv3853.1.2 kV=0.2080002494301389 Vminpu=0.8 Vmaxpu=1.2 model=1 kW=1.69002 kvar=0.33961982674506697 Phases=2

New Load.load_p1ulv3854 conn=wye bus1=p1ulv3854.1.2 kV=0.2080002494301389 Vminpu=0.8 Vmaxpu=1.2 model=1 kW=2.47002 kvar=0.5002650705650844 Phases=2

New Load.load_p1ulv3855 conn=wye bus1=p1ulv3855.1.2 kV=0.2080002494301389 Vminpu=0.8 Vmaxpu=1.2 model=1 kW=3.15003 kvar=0.6396408727569326 Phases=2

New Load.load_p1ulv3856 conn=wye bus1=p1ulv3856.1.2 kV=0.2080002494301389 Vminpu=0.8 Vmaxpu=1.2 model=1 kW=3.0500300000000005 kvar=0.6193350066935321 Phases=2

New Load.load_p1ulv3857 conn=wye bus1=p1ulv3857.1.2 kV=0.2080002494301389 Vminpu=0.8 Vmaxpu=1.2 model=1 kW=3.7300400000000002 kvar=0.7593664194785962 Phases=2

New Load.load_p1ulv3858 conn=wye bus1=p1ulv3858.1.2 kV=0.2080002494301389 Vminpu=0.8 Vmaxpu=1.2 model=1 kW=2.99003 kvar=0.6102734204701886 Phases=2

New Load.load_p1ulv3859 conn=wye bus1=p1ulv3858.1.2 kV=0.2080002494301389 Vminpu=0.8 Vmaxpu=1.2 model=1 kW=2.97003 kvar=0.5999751474699353 Phases=2

New Load.load_p1ulv3860 conn=wye bus1=p1ulv3860.1.2 kV=0.2080002494301389 Vminpu=0.8 Vmaxpu=1.2 model=1 kW=2.91003 kvar=0.5893824192907394 Phases=2

New Load.load_p1ulv3861 conn=wye bus1=p1ulv3861.1.2 kV=0.2080002494301389 Vminpu=0.8 Vmaxpu=1.2 model=1 kW=3.9400400000000007 kvar=0.8000592452444024 Phases=2

New Load.load_p1ulv3868 conn=wye bus1=p1ulv3868.1.2 kV=0.2080002494301389 Vminpu=0.8 Vmaxpu=1.2 model=1 kW=2.93003 kvar=0.5903528595437461 Phases=2

New Load.load_p1ulv3869 conn=wye bus1=p1ulv3869.1.2 kV=0.2080002494301389 Vminpu=0.8 Vmaxpu=1.2 model=1 kW=3.13003 kvar=0.6404763570309296 Phases=2

New Load.load_p1ulv3889 conn=wye bus1=p1ulv3889.1.2 kV=0.2080002494301389 Vminpu=0.8 Vmaxpu=1.2 model=1 kW=2.99003 kvar=0.6102734204701886 Phases=2

New Load.load_p1ulv3921 conn=wye bus1=p1ulv3921.1.2 kV=0.2080002494301389 Vminpu=0.8 Vmaxpu=1.2 model=1 kW=3.2600300000000004 kvar=0.6602696083409414 Phases=2

New Load.load_p1ulv3922 conn=wye bus1=p1ulv3922.1.2 kV=0.2080002494301389 Vminpu=0.8 Vmaxpu=1.2 model=1 kW=3.81004 kvar=0.769665394243948 Phases=2

New Load.load_p1ulv3923 conn=wye bus1=p1ulv3923.1.2 kV=0.2080002494301389 Vminpu=0.8 Vmaxpu=1.2 model=1 kW=3.33003 kvar=0.6796683639857601 Phases=2

New Load.load_p1ulv3924 conn=wye bus1=p1ulv3924.1.2 kV=0.2080002494301389 Vminpu=0.8 Vmaxpu=1.2 model=1 kW=2.88003 kvar=0.5802786818127376 Phases=2

New Load.load_p1ulv3925 conn=wye bus1=p1ulv3925.1.2 kV=0.2080002494301389 Vminpu=0.8 Vmaxpu=1.2 model=1 kW=2.5500300000000005 kvar=0.5204681994500374 Phases=2

New Load.load_p1ulv3926 conn=wye bus1=p1ulv3926.1.2 kV=0.2080002494301389 Vminpu=0.8 Vmaxpu=1.2 model=1 kW=2.94003 kvar=0.6000682817178988 Phases=2

New Load.load_p1ulv3927 conn=wye bus1=p1ulv3927.1.2 kV=0.2080002494301389 Vminpu=0.8 Vmaxpu=1.2 model=1 kW=2.85003 kvar=0.5802128332421591 Phases=2

New Load.load_p1ulv3928 conn=wye bus1=p1ulv3928.1.2 kV=0.2080002494301389 Vminpu=0.8 Vmaxpu=1.2 model=1 kW=2.74003 kvar=0.5606733585797765 Phases=2

New Load.load_p1ulv3929 conn=wye bus1=p1ulv3929.1.2 kV=0.2080002494301389 Vminpu=0.8 Vmaxpu=1.2 model=1 kW=3.0300300000000004 kvar=0.6200140497357622 Phases=2

New Load.load_p1ulv3931 conn=wye bus1=p1ulv3931.1.2 kV=0.2080002494301389 Vminpu=0.8 Vmaxpu=1.2 model=1 kW=2.41002 kvar=0.489375433301163 Phases=2

New Load.load_p1ulv4330 conn=wye bus1=p1ulv4330.1.2 kV=0.2080002494301389 Vminpu=0.8 Vmaxpu=1.2 model=1 kW=5.170050000000001 kvar=1.0498234284108339 Phases=2

New Load.load_p1ulv4333 conn=wye bus1=p1ulv4333.1.2 kV=0.2080002494301389 Vminpu=0.8 Vmaxpu=1.2 model=1 kW=3.09003 kvar=0.6306836979747686 Phases=2

New Load.load_p1ulv4335 conn=wye bus1=p1ulv4335.1.2 kV=0.2080002494301389 Vminpu=0.8 Vmaxpu=1.2 model=1 kW=8.52009 kvar=1.7300780638811737 Phases=2

New Load.load_p1ulv5255 conn=wye bus1=p1ulv5255.1.2 kV=0.2080002494301389 Vminpu=0.8 Vmaxpu=1.2 model=1 kW=3.47003 kvar=0.7100482018344989 Phases=2

New Load.load_p1ulv5256 conn=wye bus1=p1ulv5256.1.2 kV=0.2080002494301389 Vminpu=0.8 Vmaxpu=1.2 model=1 kW=2.90003 kvar=0.5903918986071232 Phases=2

New Load.load_p1ulv5257 conn=wye bus1=p1ulv5256.1.2 kV=0.2080002494301389 Vminpu=0.8 Vmaxpu=1.2 model=1 kW=2.97003 kvar=0.5999751474699353 Phases=2

New Load.load_p1ulv5258 conn=wye bus1=p1ulv5258.1.2 kV=0.2080002494301389 Vminpu=0.8 Vmaxpu=1.2 model=1 kW=3.19003 kvar=0.6494304777239135 Phases=2

New Load.load_p1ulv5259 conn=wye bus1=p1ulv5259.1.2 kV=0.2080002494301389 Vminpu=0.8 Vmaxpu=1.2 model=1 kW=2.8000300000000005 kvar=0.5700337678771953 Phases=2

New Load.load_p1ulv5260 conn=wye bus1=p1ulv5260.1.2 kV=0.2080002494301389 Vminpu=0.8 Vmaxpu=1.2 model=1 kW=2.66003 kvar=0.5401421290462703 Phases=2

New Load.load_p1ulv5261 conn=wye bus1=p1ulv5261.1.2 kV=0.2080002494301389 Vminpu=0.8 Vmaxpu=1.2 model=1 kW=2.56003 kvar=0.5198362629828699 Phases=2

New Load.load_p1ulv5262 conn=wye bus1=p1ulv5262.1.2 kV=0.2080002494301389 Vminpu=0.8 Vmaxpu=1.2 model=1 kW=2.7600300000000004 kvar=0.5604479951096709 Phases=2

New Load.load_p1ulv5263 conn=wye bus1=p1ulv5263.1.2 kV=0.2080002494301389 Vminpu=0.8 Vmaxpu=1.2 model=1 kW=2.62003 kvar=0.5306473197920009 Phases=2

New Load.load_p1ulv5264 conn=wye bus1=p1ulv5259.1.2 kV=0.2080002494301389 Vminpu=0.8 Vmaxpu=1.2 model=1 kW=1.38001 kvar=0.28022298226153225 Phases=2

New Load.load_p1ulv5265 conn=wye bus1=p1ulv5263.1.2 kV=0.2080002494301389 Vminpu=0.8 Vmaxpu=1.2 model=1 kW=2.93003 kvar=0.5995517424405946 Phases=2

New Load.load_p1ulv5266 conn=wye bus1=p1ulv5266.1.2 kV=0.2080002494301389 Vminpu=0.8 Vmaxpu=1.2 model=1 kW=3.20003 kvar=0.6497938057886328 Phases=2

New Load.load_p1ulv5267 conn=wye bus1=p1ulv5267.1.2 kV=0.2080002494301389 Vminpu=0.8 Vmaxpu=1.2 model=1 kW=2.50002 kvar=0.510261019669997 Phases=2

New Load.load_p1ulv5268 conn=wye bus1=p1ulv5268.1.2 kV=0.2080002494301389 Vminpu=0.8 Vmaxpu=1.2 model=1 kW=2.93003 kvar=0.5903528595437461 Phases=2

New Load.load_p1ulv5269 conn=wye bus1=p1ulv5269.1.2 kV=0.2080002494301389 Vminpu=0.8 Vmaxpu=1.2 model=1 kW=2.83003 kvar=0.580558608517704 Phases=2

New Load.load_p1ulv5270 conn=wye bus1=p1ulv5270.1.2 kV=0.2080002494301389 Vminpu=0.8 Vmaxpu=1.2 model=1 kW=3.16003 kvar=0.6400161257551694 Phases=2

New Load.load_p1ulv5271 conn=wye bus1=p1ulv5271.1.2 kV=0.2080002494301389 Vminpu=0.8 Vmaxpu=1.2 model=1 kW=3.21003 kvar=0.6501428670480555 Phases=2

New Load.load_p1ulv5272 conn=wye bus1=p1ulv5272.1.2 kV=0.2080002494301389 Vminpu=0.8 Vmaxpu=1.2 model=1 kW=3.41003 kvar=0.6906498322195993 Phases=2

New Load.load_p1ulv5273 conn=wye bus1=p1ulv5272.1.2 kV=0.2080002494301389 Vminpu=0.8 Vmaxpu=1.2 model=1 kW=2.99003 kvar=0.6102734204701886 Phases=2

New Load.load_p1ulv5274 conn=wye bus1=p1ulv5274.1.2 kV=0.2080002494301389 Vminpu=0.8 Vmaxpu=1.2 model=1 kW=3.10003 kvar=0.6294879397252322 Phases=2

New Load.load_p1ulv5275 conn=wye bus1=p1ulv5274.1.2 kV=0.2080002494301389 Vminpu=0.8 Vmaxpu=1.2 model=1 kW=3.23003 kvar=0.6592580864811803 Phases=2

New Load.load_p1ulv5276 conn=wye bus1=p1ulv5276.1.2 kV=0.2080002494301389 Vminpu=0.8 Vmaxpu=1.2 model=1 kW=3.16003 kvar=0.6400161257551694 Phases=2

New Load.load_p1ulv5277 conn=wye bus1=p1ulv5277.1.2 kV=0.2080002494301389 Vminpu=0.8 Vmaxpu=1.2 model=1 kW=3.14003 kvar=0.6392514123589496 Phases=2

New Load.load_p1ulv5278 conn=wye bus1=p1ulv5277.1.2 kV=0.2080002494301389 Vminpu=0.8 Vmaxpu=1.2 model=1 kW=3.24003 kvar=0.6596095430888772 Phases=2

New Load.load_p1ulv5279 conn=wye bus1=p1ulv5279.1.2 kV=0.2080002494301389 Vminpu=0.8 Vmaxpu=1.2 model=1 kW=2.8000300000000005 kvar=0.5700337678771953 Phases=2

New Load.load_p1ulv5280 conn=wye bus1=p1ulv5280.1.2 kV=0.2080002494301389 Vminpu=0.8 Vmaxpu=1.2 model=1 kW=3.3000300000000005 kvar=0.6700996718520332 Phases=2

New Load.load_p1ulv5281 conn=wye bus1=p1ulv5281.1.2 kV=0.2080002494301389 Vminpu=0.8 Vmaxpu=1.2 model=1 kW=2.94003 kvar=0.6000682817178988 Phases=2

New Load.load_p1ulv5282 conn=wye bus1=p1ulv5281.1.2 kV=0.2080002494301389 Vminpu=0.8 Vmaxpu=1.2 model=1 kW=3.10003 kvar=0.6294879397252322 Phases=2

New Load.load_p1ulv5283 conn=wye bus1=p1ulv5283.1.2 kV=0.2080002494301389 Vminpu=0.8 Vmaxpu=1.2 model=1 kW=3.39003 kvar=0.6901467391837689 Phases=2

New Load.load_p1ulv5284 conn=wye bus1=p1ulv5284.1.2 kV=0.2080002494301389 Vminpu=0.8 Vmaxpu=1.2 model=1 kW=2.8200300000000005 kvar=0.5696736784206362 Phases=2

New Load.load_p1ulv5285 conn=wye bus1=p1ulv5285.1.2 kV=0.2080002494301389 Vminpu=0.8 Vmaxpu=1.2 model=1 kW=2.8000300000000005 kvar=0.5700337678771953 Phases=2

New Load.load_p1ulv5286 conn=wye bus1=p1ulv5286.1.2 kV=0.2080002494301389 Vminpu=0.8 Vmaxpu=1.2 model=1 kW=2.79003 kvar=0.569452865461029 Phases=2

New Load.load_p1ulv5287 conn=wye bus1=p1ulv5287.1.2 kV=0.2080002494301389 Vminpu=0.8 Vmaxpu=1.2 model=1 kW=2.13002 kvar=0.4302849006959229 Phases=2

New Load.load_p1ulv5288 conn=wye bus1=p1ulv5288.1.2 kV=0.2080002494301389 Vminpu=0.8 Vmaxpu=1.2 model=1 kW=2.31002 kvar=0.4702768914874764 Phases=2

New Load.load_p1ulv5289 conn=wye bus1=p1ulv5288.1.2 kV=0.2080002494301389 Vminpu=0.8 Vmaxpu=1.2 model=1 kW=2.28002 kvar=0.46058636974522216 Phases=2

New Load.load_p1ulv5290 conn=wye bus1=p1ulv5290.1.2 kV=0.2080002494301389 Vminpu=0.8 Vmaxpu=1.2 model=1 kW=2.8000300000000005 kvar=0.5700337678771953 Phases=2

New Load.load_p1ulv5291 conn=wye bus1=p1ulv5291.1.2 kV=0.2080002494301389 Vminpu=0.8 Vmaxpu=1.2 model=1 kW=2.89003 kvar=0.5898631429656088 Phases=2

New Load.load_p1ulv5292 conn=wye bus1=p1ulv5292.1.2 kV=0.2080002494301389 Vminpu=0.8 Vmaxpu=1.2 model=1 kW=3.2600300000000004 kvar=0.6602696083409414 Phases=2

New Load.load_p1ulv5293 conn=wye bus1=p1ulv5293.1.2 kV=0.2080002494301389 Vminpu=0.8 Vmaxpu=1.2 model=1 kW=2.89003 kvar=0.5898631429656088 Phases=2

New Load.load_p1ulv5294 conn=wye bus1=p1ulv5294.1.2 kV=0.2080002494301389 Vminpu=0.8 Vmaxpu=1.2 model=1 kW=3.10003 kvar=0.6294879397252322 Phases=2

New Load.load_p1ulv5295 conn=wye bus1=p1ulv5295.1.2 kV=0.2080002494301389 Vminpu=0.8 Vmaxpu=1.2 model=1 kW=3.0300300000000004 kvar=0.6200140497357622 Phases=2

New Load.load_p1ulv6470 conn=wye bus1=p1ulv6470.1.2 kV=0.2080002494301389 Vminpu=0.8 Vmaxpu=1.2 model=1 kW=4.96005 kvar=1.0097734632697801 Phases=2

New Load.load_p1ulv6471 conn=wye bus1=p1ulv6471.1.2 kV=0.2080002494301389 Vminpu=0.8 Vmaxpu=1.2 model=1 kW=4.22004 kvar=0.8591212600552419 Phases=2

New Load.load_p1ulv6472 conn=wye bus1=p1ulv6472.1.2 kV=0.2080002494301389 Vminpu=0.8 Vmaxpu=1.2 model=1 kW=3.62004 kvar=0.7407437090079797 Phases=2

New Load.load_p1ulv6473 conn=wye bus1=p1ulv6473.1.2 kV=0.2080002494301389 Vminpu=0.8 Vmaxpu=1.2 model=1 kW=4.27004 kvar=0.869300325420206 Phases=2

New Load.load_p1ulv6474 conn=wye bus1=p1ulv6474.1.2 kV=0.2080002494301389 Vminpu=0.8 Vmaxpu=1.2 model=1 kW=5.35005 kvar=1.0891701731164982 Phases=2

New Load.load_p1ulv6475 conn=wye bus1=p1ulv6475.1.2 kV=0.2080002494301389 Vminpu=0.8 Vmaxpu=1.2 model=1 kW=4.64005 kvar=0.9397717187211114 Phases=2

New Load.load_p1ulv6477 conn=wye bus1=p1ulv6477.1.2 kV=0.2080002494301389 Vminpu=0.8 Vmaxpu=1.2 model=1 kW=6.48006 kvar=1.3192190861777544 Phases=2

New Load.load_p1ulv6478 conn=wye bus1=p1ulv6478.1.2 kV=0.2080002494301389 Vminpu=0.8 Vmaxpu=1.2 model=1 kW=5.01005 kvar=1.019952528634744 Phases=2

New Load.load_p1ulv6479 conn=wye bus1=p1ulv6479.1.2 kV=0.2080002494301389 Vminpu=0.8 Vmaxpu=1.2 model=1 kW=4.12004 kvar=0.8409115972996914 Phases=2

New Load.load_p1ulv6480 conn=wye bus1=p1ulv6480.1.2 kV=0.2080002494301389 Vminpu=0.8 Vmaxpu=1.2 model=1 kW=3.91004 kvar=0.7898663736101474 Phases=2

New Load.load_p1ulv6481 conn=wye bus1=p1ulv6481.1.2 kV=0.2080002494301389 Vminpu=0.8 Vmaxpu=1.2 model=1 kW=5.39005 kvar=1.088842888327837 Phases=2

New Load.load_p1ulv6482 conn=wye bus1=p1ulv6482.1.2 kV=0.2080002494301389 Vminpu=0.8 Vmaxpu=1.2 model=1 kW=3.7100400000000002 kvar=0.7494644148777485 Phases=2

New Load.load_p1ulv6484 conn=wye bus1=p1ulv6484.1.2 kV=0.2080002494301389 Vminpu=0.8 Vmaxpu=1.2 model=1 kW=5.420050000000001 kvar=1.1005880935693348 Phases=2

New Load.load_p1ulv6486 conn=wye bus1=p1ulv6486.1.2 kV=0.2080002494301389 Vminpu=0.8 Vmaxpu=1.2 model=1 kW=4.2400400000000005 kvar=0.8609768434346036 Phases=2

New Load.load_p1ulv6487 conn=wye bus1=p1ulv6487.1.2 kV=0.2080002494301389 Vminpu=0.8 Vmaxpu=1.2 model=1 kW=7.91008 kvar=1.610344427241867 Phases=2

New Load.load_p1ulv6490 conn=wye bus1=p1ulv6490.1.2 kV=0.2080002494301389 Vminpu=0.8 Vmaxpu=1.2 model=1 kW=4.05004 kvar=0.8202741461167985 Phases=2

New Load.load_p1ulv6491 conn=wye bus1=p1ulv6491.1.2 kV=0.2080002494301389 Vminpu=0.8 Vmaxpu=1.2 model=1 kW=8.620090000000001 kvar=1.750383929944574 Phases=2

New Load.load_p1ulv6494 conn=wye bus1=p1ulv6494.1.2.3 kV=0.48 Vminpu=0.8 Vmaxpu=1.2 model=1 kW=22.380200000000002 kvar=4.544493436721143 Phases=3

New Load.load_p1ulv6497 conn=wye bus1=p1ulv6497.1.2 kV=0.2080002494301389 Vminpu=0.8 Vmaxpu=1.2 model=1 kW=5.24005 kvar=1.0612926142357433 Phases=2

New Load.load_p1ulv6498 conn=wye bus1=p1ulv6498.1.2 kV=0.2080002494301389 Vminpu=0.8 Vmaxpu=1.2 model=1 kW=5.59006 kvar=1.1409467586725162 Phases=2

New Load.load_p1ulv6499 conn=wye bus1=p1ulv6499.1.2 kV=0.2080002494301389 Vminpu=0.8 Vmaxpu=1.2 model=1 kW=4.19004 kvar=0.8508239104029033 Phases=2

New Load.load_p1ulv6503 conn=wye bus1=p1ulv6503.1.2 kV=0.2080002494301389 Vminpu=0.8 Vmaxpu=1.2 model=1 kW=3.2600300000000004 kvar=0.6602696083409414 Phases=2

New Load.load_p1ulv6515 conn=wye bus1=p1ulv6515.1.2 kV=0.2080002494301389 Vminpu=0.8 Vmaxpu=1.2 model=1 kW=4.35004 kvar=0.8810345938741143 Phases=2

New Load.load_p1ulv6534 conn=wye bus1=p1ulv6534.1.2 kV=0.2080002494301389 Vminpu=0.8 Vmaxpu=1.2 model=1 kW=4.28004 kvar=0.8690991898599637 Phases=2

New Load.load_p1ulv6539 conn=wye bus1=p1ulv6539.1.2 kV=0.2080002494301389 Vminpu=0.8 Vmaxpu=1.2 model=1 kW=4.23004 kvar=0.8589462568282636 Phases=2

New Load.load_p1ulv6547 conn=wye bus1=p1ulv6547.1.2 kV=0.2080002494301389 Vminpu=0.8 Vmaxpu=1.2 model=1 kW=6.32006 kvar=1.2800322515103388 Phases=2

New Load.load_p1ulv6552 conn=wye bus1=p1ulv6552.1.2 kV=0.2080002494301389 Vminpu=0.8 Vmaxpu=1.2 model=1 kW=6.03006 kvar=1.2212971520116003 Phases=2

New Load.load_p1ulv6557 conn=wye bus1=p1ulv6557.1.2 kV=0.2080002494301389 Vminpu=0.8 Vmaxpu=1.2 model=1 kW=5.49005 kvar=1.1090438676940364 Phases=2

New Load.load_p1ulv6559 conn=wye bus1=p1ulv6559.1.2 kV=0.2080002494301389 Vminpu=0.8 Vmaxpu=1.2 model=1 kW=8.56009 kvar=1.7382004103065338 Phases=2

New Load.load_p1ulv10409 conn=wye bus1=p1ulv10409.1.2.3 kV=0.48 Vminpu=0.8 Vmaxpu=1.2 model=1 kW=86.5509 kvar=17.57490983066764 Phases=3

New Load.load_p1ulv12291 conn=wye bus1=p1ulv12291.1.2 kV=0.2080002494301389 Vminpu=0.8 Vmaxpu=1.2 model=1 kW=3.40003 kvar=0.6904055379154336 Phases=2

New Load.load_p1ulv12298 conn=wye bus1=p1ulv12298.1.2 kV=0.2080002494301389 Vminpu=0.8 Vmaxpu=1.2 model=1 kW=4.670050000000001 kvar=0.9507348841529898 Phases=2

New Load.load_p1ulv12307 conn=wye bus1=p1ulv12307.1.2 kV=0.2080002494301389 Vminpu=0.8 Vmaxpu=1.2 model=1 kW=5.20005 kvar=1.061344635376904 Phases=2

New Load.load_p1ulv14595 conn=wye bus1=p1ulv14595.1.2 kV=0.2080002494301389 Vminpu=0.8 Vmaxpu=1.2 model=1 kW=4.27004 kvar=0.869300325420206 Phases=2

New Load.load_p1ulv14597 conn=wye bus1=p1ulv14597.1.2 kV=0.2080002494301389 Vminpu=0.8 Vmaxpu=1.2 model=1 kW=5.19005 kvar=1.0511658729428572 Phases=2

New Load.load_p1ulv14598 conn=wye bus1=p1ulv14598.1.2 kV=0.2080002494301389 Vminpu=0.8 Vmaxpu=1.2 model=1 kW=2.48002 kvar=0.499683245129122 Phases=2

New Load.load_p1ulv14938 conn=wye bus1=p1ulv14938.1.2.3 kV=0.48 Vminpu=0.8 Vmaxpu=1.2 model=1 kW=25.870299999999997 kvar=5.253188468199881 Phases=3

New Load.load_p1ulv15842 conn=wye bus1=p1ulv15842.1.2 kV=0.2080002494301389 Vminpu=0.8 Vmaxpu=1.2 model=1 kW=3.52004 kvar=0.7092301716051945 Phases=2

New Load.load_p1ulv15843 conn=wye bus1=p1ulv15843.1.2 kV=0.2080002494301389 Vminpu=0.8 Vmaxpu=1.2 model=1 kW=4.46004 kvar=0.910306540815263 Phases=2

New Load.load_p1ulv15844 conn=wye bus1=p1ulv15844.1.2 kV=0.2080002494301389 Vminpu=0.8 Vmaxpu=1.2 model=1 kW=1.53002 kvar=0.309882334258828 Phases=2

New Load.load_p1ulv15845 conn=wye bus1=p1ulv15845.1.2 kV=0.2080002494301389 Vminpu=0.8 Vmaxpu=1.2 model=1 kW=3.70004 kvar=0.7493869570665965 Phases=2

New Load.load_p1ulv15846 conn=wye bus1=p1ulv15846.1.2 kV=0.2080002494301389 Vminpu=0.8 Vmaxpu=1.2 model=1 kW=4.29004 kvar=0.8711297764663039 Phases=2

New Load.load_p1ulv15847 conn=wye bus1=p1ulv15847.1.2 kV=0.2080002494301389 Vminpu=0.8 Vmaxpu=1.2 model=1 kW=3.40003 kvar=0.6904055379154336 Phases=2

New Load.load_p1ulv15848 conn=wye bus1=p1ulv15848.1.2 kV=0.2080002494301389 Vminpu=0.8 Vmaxpu=1.2 model=1 kW=3.02003 kvar=0.6100756371530351 Phases=2

New Load.load_p1ulv15849 conn=wye bus1=p1ulv15849.1.2 kV=0.2080002494301389 Vminpu=0.8 Vmaxpu=1.2 model=1 kW=3.79004 kvar=0.7696004461493017 Phases=2

New Load.load_p1ulv15850 conn=wye bus1=p1ulv15850.1.2 kV=0.2080002494301389 Vminpu=0.8 Vmaxpu=1.2 model=1 kW=4.670050000000001 kvar=0.9507348841529898 Phases=2

New Load.load_p1ulv15851 conn=wye bus1=p1ulv15851.1.2 kV=0.2080002494301389 Vminpu=0.8 Vmaxpu=1.2 model=1 kW=4.58005 kvar=0.9300188186367714 Phases=2

New Load.load_p1ulv15852 conn=wye bus1=p1ulv15852.1.2 kV=0.2080002494301389 Vminpu=0.8 Vmaxpu=1.2 model=1 kW=3.09003 kvar=0.6306836979747686 Phases=2

New Load.load_p1ulv15853 conn=wye bus1=p1ulv15853.1.2 kV=0.2080002494301389 Vminpu=0.8 Vmaxpu=1.2 model=1 kW=4.36004 kvar=0.8807707807580453 Phases=2

New Load.load_p1ulv15854 conn=wye bus1=p1ulv15854.1.2 kV=0.2080002494301389 Vminpu=0.8 Vmaxpu=1.2 model=1 kW=3.61004 kvar=0.7292634355115489 Phases=2

New Load.load_p1ulv15857 conn=wye bus1=p1ulv15857.1.2 kV=0.2080002494301389 Vminpu=0.8 Vmaxpu=1.2 model=1 kW=4.51005 kvar=0.9205137205953031 Phases=2

New Load.load_p1ulv15858 conn=wye bus1=p1ulv15858.1.2 kV=0.2080002494301389 Vminpu=0.8 Vmaxpu=1.2 model=1 kW=4.18004 kvar=0.8509780077632708 Phases=2

New Load.load_p1ulv15860 conn=wye bus1=p1ulv15860.1.2 kV=0.2080002494301389 Vminpu=0.8 Vmaxpu=1.2 model=1 kW=2.94003 kvar=0.6000682817178988 Phases=2

New Load.load_p1ulv15862 conn=wye bus1=p1ulv15862.1.2 kV=0.2080002494301389 Vminpu=0.8 Vmaxpu=1.2 model=1 kW=3.53004 kvar=0.7204909600226704 Phases=2

New Load.load_p1ulv15863 conn=wye bus1=p1ulv15863.1.2 kV=0.2080002494301389 Vminpu=0.8 Vmaxpu=1.2 model=1 kW=4.03004 kvar=0.8204408116683792 Phases=2

New Load.load_p1ulv15864 conn=wye bus1=p1ulv15864.1.2 kV=0.2080002494301389 Vminpu=0.8 Vmaxpu=1.2 model=1 kW=3.83004 kvar=0.7797245502085238 Phases=2

New Load.load_p1ulv15866 conn=wye bus1=p1ulv15866.1.2 kV=0.2080002494301389 Vminpu=0.8 Vmaxpu=1.2 model=1 kW=2.92003 kvar=0.5898746577868357 Phases=2

New Load.load_p1ulv15868 conn=wye bus1=p1ulv15868.1.2 kV=0.2080002494301389 Vminpu=0.8 Vmaxpu=1.2 model=1 kW=3.63004 kvar=0.7409012375272501 Phases=2

New Load.load_p1ulv15870 conn=wye bus1=p1ulv15870.1.2 kV=0.2080002494301389 Vminpu=0.8 Vmaxpu=1.2 model=1 kW=3.0300300000000004 kvar=0.6200140497357622 Phases=2

New Load.load_p1ulv15871 conn=wye bus1=p1ulv15871.1.2 kV=0.2080002494301389 Vminpu=0.8 Vmaxpu=1.2 model=1 kW=4.38004 kvar=0.8894050559233643 Phases=2

New Load.load_p1ulv15872 conn=wye bus1=p1ulv15872.1.2 kV=0.2080002494301389 Vminpu=0.8 Vmaxpu=1.2 model=1 kW=3.04003 kvar=0.6204785592224786 Phases=2

New Load.load_p1ulv15873 conn=wye bus1=p1ulv15873.1.2 kV=0.2080002494301389 Vminpu=0.8 Vmaxpu=1.2 model=1 kW=4.40004 kvar=0.8911613351670004 Phases=2

New Load.load_p1ulv15874 conn=wye bus1=p1ulv15874.1.2 kV=0.2080002494301389 Vminpu=0.8 Vmaxpu=1.2 model=1 kW=3.52004 kvar=0.7092301716051945 Phases=2

New Load.load_p1ulv15875 conn=wye bus1=p1ulv15875.1.2 kV=0.2080002494301389 Vminpu=0.8 Vmaxpu=1.2 model=1 kW=4.77005 kvar=0.9710930148829175 Phases=2

New Load.load_p1ulv15876 conn=wye bus1=p1ulv15876.1.2 kV=0.2080002494301389 Vminpu=0.8 Vmaxpu=1.2 model=1 kW=3.0700300000000005 kvar=0.620176126836135 Phases=2

New Load.load_p1ulv15878 conn=wye bus1=p1ulv15878.1.2 kV=0.2080002494301389 Vminpu=0.8 Vmaxpu=1.2 model=1 kW=3.86004 kvar=0.7797658839270477 Phases=2

New Load.load_p1ulv15879 conn=wye bus1=p1ulv15879.1.2 kV=0.2080002494301389 Vminpu=0.8 Vmaxpu=1.2 model=1 kW=3.43003 kvar=0.70007864149034 Phases=2

New Load.load_p1ulv15882 conn=wye bus1=p1ulv15882.1.2 kV=0.2080002494301389 Vminpu=0.8 Vmaxpu=1.2 model=1 kW=6.51007 kvar=1.3185158937715642 Phases=2

New Load.load_p1ulv15886 conn=wye bus1=p1ulv15886.1.2 kV=0.2080002494301389 Vminpu=0.8 Vmaxpu=1.2 model=1 kW=2.99003 kvar=0.6102734204701886 Phases=2

New Load.load_p1ulv15889 conn=wye bus1=p1ulv15889.1.2 kV=0.2080002494301389 Vminpu=0.8 Vmaxpu=1.2 model=1 kW=3.02003 kvar=0.6100756371530351 Phases=2

New Load.load_p1ulv15890 conn=wye bus1=p1ulv15890.1.2 kV=0.2080002494301389 Vminpu=0.8 Vmaxpu=1.2 model=1 kW=3.02003 kvar=0.6100756371530351 Phases=2

New Load.load_p1ulv15891 conn=wye bus1=p1ulv15891.1.2 kV=0.2080002494301389 Vminpu=0.8 Vmaxpu=1.2 model=1 kW=5.32005 kvar=1.0802822275059345 Phases=2

New Load.load_p1ulv15892 conn=wye bus1=p1ulv15892.1.2 kV=0.2080002494301389 Vminpu=0.8 Vmaxpu=1.2 model=1 kW=4.09004 kvar=0.8305180443395029 Phases=2

New Load.load_p1ulv15893 conn=wye bus1=p1ulv15893.1.2 kV=0.2080002494301389 Vminpu=0.8 Vmaxpu=1.2 model=1 kW=3.2800300000000004 kvar=0.6694632252334703 Phases=2

New Load.load_p1ulv15894 conn=wye bus1=p1ulv15894.1.2 kV=0.2080002494301389 Vminpu=0.8 Vmaxpu=1.2 model=1 kW=3.02003 kvar=0.6100756371530351 Phases=2

New Load.load_p1ulv15896 conn=wye bus1=p1ulv15896.1.2 kV=0.2080002494301389 Vminpu=0.8 Vmaxpu=1.2 model=1 kW=4.04004 kvar=0.8203651113078028 Phases=2

New Load.load_p1ulv15897 conn=wye bus1=p1ulv15897.1.2 kV=0.2080002494301389 Vminpu=0.8 Vmaxpu=1.2 model=1 kW=5.48005 kvar=1.109900972441596 Phases=2

New Load.load_p1ulv15898 conn=wye bus1=p1ulv15898.1.2 kV=0.2080002494301389 Vminpu=0.8 Vmaxpu=1.2 model=1 kW=4.13004 kvar=0.840798942398307 Phases=2

New Load.load_p1ulv15899 conn=wye bus1=p1ulv15899.1.2 kV=0.2080002494301389 Vminpu=0.8 Vmaxpu=1.2 model=1 kW=3.14003 kvar=0.6392514123589496 Phases=2

New Load.load_p1ulv15900 conn=wye bus1=p1ulv15900.1.2 kV=0.2080002494301389 Vminpu=0.8 Vmaxpu=1.2 model=1 kW=3.09003 kvar=0.6306836979747686 Phases=2

New Load.load_p1ulv15901 conn=wye bus1=p1ulv15901.1.2 kV=0.2080002494301389 Vminpu=0.8 Vmaxpu=1.2 model=1 kW=3.23003 kvar=0.6592580864811803 Phases=2

New Load.load_p1ulv15902 conn=wye bus1=p1ulv15902.1.2 kV=0.2080002494301389 Vminpu=0.8 Vmaxpu=1.2 model=1 kW=4.590050000000001 kvar=0.9296449774282256 Phases=2

New Load.load_p1ulv15903 conn=wye bus1=p1ulv15903.1.2 kV=0.2080002494301389 Vminpu=0.8 Vmaxpu=1.2 model=1 kW=3.13003 kvar=0.6404763570309296 Phases=2

New Load.load_p1ulv15904 conn=wye bus1=p1ulv15904.1.2 kV=0.2080002494301389 Vminpu=0.8 Vmaxpu=1.2 model=1 kW=3.2800300000000004 kvar=0.6694632252334703 Phases=2

New Load.load_p1ulv15905 conn=wye bus1=p1ulv15905.1.2 kV=0.2080002494301389 Vminpu=0.8 Vmaxpu=1.2 model=1 kW=4.52005 kvar=0.9201976880580982 Phases=2

New Load.load_p1ulv15906 conn=wye bus1=p1ulv15906.1.2 kV=0.2080002494301389 Vminpu=0.8 Vmaxpu=1.2 model=1 kW=4.630050000000001 kvar=0.9401717516684716 Phases=2

New Load.load_p1ulv15907 conn=wye bus1=p1ulv15907.1.2 kV=0.2080002494301389 Vminpu=0.8 Vmaxpu=1.2 model=1 kW=1.64002 kvar=0.32957202178580414 Phases=2

New Load.load_p1ulv15908 conn=wye bus1=p1ulv15908.1.2 kV=0.2080002494301389 Vminpu=0.8 Vmaxpu=1.2 model=1 kW=3.00003 kvar=0.6107500293370508 Phases=2

New Load.load_p1ulv15909 conn=wye bus1=p1ulv15909.1.2 kV=0.2080002494301389 Vminpu=0.8 Vmaxpu=1.2 model=1 kW=2.54003 kvar=0.5197487439894416 Phases=2

New Load.load_p1ulv15910 conn=wye bus1=p1ulv15910.1.2 kV=0.2080002494301389 Vminpu=0.8 Vmaxpu=1.2 model=1 kW=3.84004 kvar=0.7797533791810017 Phases=2

New Load.load_p1ulv15911 conn=wye bus1=p1ulv15911.1.2 kV=0.2080002494301389 Vminpu=0.8 Vmaxpu=1.2 model=1 kW=4.93005 kvar=1.0010893498586726 Phases=2

New Load.load_p1ulv15912 conn=wye bus1=p1ulv15912.1.2 kV=0.2080002494301389 Vminpu=0.8 Vmaxpu=1.2 model=1 kW=3.6900400000000007 kvar=0.7492945800859013 Phases=2

New Load.load_p1ulv15913 conn=wye bus1=p1ulv15913.1.2 kV=0.2080002494301389 Vminpu=0.8 Vmaxpu=1.2 model=1 kW=3.2800300000000004 kvar=0.6694632252334703 Phases=2

New Load.load_p1ulv15914 conn=wye bus1=p1ulv15914.1.2 kV=0.2080002494301389 Vminpu=0.8 Vmaxpu=1.2 model=1 kW=3.20003 kvar=0.6497938057886328 Phases=2

New Load.load_p1ulv15915 conn=wye bus1=p1ulv15915.1.2 kV=0.2080002494301389 Vminpu=0.8 Vmaxpu=1.2 model=1 kW=4.71005 kvar=0.9588781364449609 Phases=2

New Load.load_p1ulv15916 conn=wye bus1=p1ulv15916.1.2 kV=0.2080002494301389 Vminpu=0.8 Vmaxpu=1.2 model=1 kW=3.34003 kvar=0.679967673818805 Phases=2

New Load.load_p1ulv15917 conn=wye bus1=p1ulv15917.1.2 kV=0.2080002494301389 Vminpu=0.8 Vmaxpu=1.2 model=1 kW=5.97006 kvar=1.2091450624601374 Phases=2

New Load.load_p1ulv15918 conn=wye bus1=p1ulv15918.1.2 kV=0.2080002494301389 Vminpu=0.8 Vmaxpu=1.2 model=1 kW=5.850060000000001 kvar=1.19096286257921 Phases=2

New Load.load_p1ulv15923 conn=wye bus1=p1ulv15923.1.2 kV=0.2080002494301389 Vminpu=0.8 Vmaxpu=1.2 model=1 kW=3.13003 kvar=0.6404763570309296 Phases=2

New Load.load_p1ulv15924 conn=wye bus1=p1ulv15924.1.2 kV=0.2080002494301389 Vminpu=0.8 Vmaxpu=1.2 model=1 kW=3.91004 kvar=0.7898663736101474 Phases=2

New Load.load_p1ulv15925 conn=wye bus1=p1ulv15925.1.2 kV=0.2080002494301389 Vminpu=0.8 Vmaxpu=1.2 model=1 kW=4.17004 kvar=0.8489421946902781 Phases=2

New Load.load_p1ulv15926 conn=wye bus1=p1ulv15926.1.2 kV=0.2080002494301389 Vminpu=0.8 Vmaxpu=1.2 model=1 kW=4.48004 kvar=0.9097109219867646 Phases=2

New Load.load_p1ulv15927 conn=wye bus1=p1ulv15927.1.2.3 kV=0.48 Vminpu=0.8 Vmaxpu=1.2 model=1 kW=22.350200000000005 kvar=4.538401676902124 Phases=3

New Load.load_p1ulv15928 conn=wye bus1=p1ulv15928.1.2 kV=0.2080002494301389 Vminpu=0.8 Vmaxpu=1.2 model=1 kW=3.52004 kvar=0.7092301716051945 Phases=2

New Load.load_p1ulv15930 conn=wye bus1=p1ulv15930.1.2 kV=0.2080002494301389 Vminpu=0.8 Vmaxpu=1.2 model=1 kW=3.9400400000000007 kvar=0.8000592452444024 Phases=2

New Load.load_p1ulv15938 conn=wye bus1=p1ulv15938.1.2 kV=0.2080002494301389 Vminpu=0.8 Vmaxpu=1.2 model=1 kW=4.21004 kvar=0.850469311708746 Phases=2

New Load.load_p1ulv15940 conn=wye bus1=p1ulv15940.1.2 kV=0.2080002494301389 Vminpu=0.8 Vmaxpu=1.2 model=1 kW=3.9800400000000002 kvar=0.8102617463034154 Phases=2

New Load.load_p1ulv15943 conn=wye bus1=p1ulv15943.1.2 kV=0.2080002494301389 Vminpu=0.8 Vmaxpu=1.2 model=1 kW=5.62006 kvar=1.141201856282742 Phases=2

New Load.load_p1ulv15944 conn=wye bus1=p1ulv15944.1.2 kV=0.2080002494301389 Vminpu=0.8 Vmaxpu=1.2 model=1 kW=3.53004 kvar=0.7204909600226704 Phases=2

New Load.load_p1ulv15945 conn=wye bus1=p1ulv15945.1.2 kV=0.2080002494301389 Vminpu=0.8 Vmaxpu=1.2 model=1 kW=3.22003 kvar=0.6504775958854341 Phases=2

New Load.load_p1ulv15949 conn=wye bus1=p1ulv15949.1.2.3 kV=0.48 Vminpu=0.8 Vmaxpu=1.2 model=1 kW=23.8602 kvar=4.8450202544594685 Phases=3

New Load.load_p1ulv15950 conn=wye bus1=p1ulv15950.1.2 kV=0.2080002494301389 Vminpu=0.8 Vmaxpu=1.2 model=1 kW=1.51002 kvar=0.30976883991827064 Phases=2

New Load.load_p1ulv17038 conn=wye bus1=p1ulv17038.1.2.3 kV=0.48 Vminpu=0.8 Vmaxpu=1.2 model=1 kW=134.661 kvar=27.34408229963565 Phases=3

New Load.load_p1ulv17790 conn=wye bus1=p1ulv17790.1.2 kV=0.2080002494301389 Vminpu=0.8 Vmaxpu=1.2 model=1 kW=3.67004 kvar=0.749065348529082 Phases=2

New Load.load_p1ulv17793 conn=wye bus1=p1ulv17793.1.2 kV=0.2080002494301389 Vminpu=0.8 Vmaxpu=1.2 model=1 kW=3.12003 kvar=0.6302766165192346 Phases=2

New Load.load_p1ulv17795 conn=wye bus1=p1ulv17795.1.2 kV=0.2080002494301389 Vminpu=0.8 Vmaxpu=1.2 model=1 kW=3.41003 kvar=0.6906498322195993 Phases=2

New Load.load_p1ulv17796 conn=wye bus1=p1ulv17796.1.2 kV=0.2080002494301389 Vminpu=0.8 Vmaxpu=1.2 model=1 kW=4.28004 kvar=0.8690991898599637 Phases=2

New Load.load_p1ulv17797 conn=wye bus1=p1ulv17797.1.2 kV=0.2080002494301389 Vminpu=0.8 Vmaxpu=1.2 model=1 kW=4.07004 kvar=0.8307064585474014 Phases=2

New Load.load_p1ulv17798 conn=wye bus1=p1ulv17798.1.2 kV=0.2080002494301389 Vminpu=0.8 Vmaxpu=1.2 model=1 kW=4.880050000000001 kvar=0.9909364168269728 Phases=2

New Load.load_p1ulv17799 conn=wye bus1=p1ulv17799.1.2 kV=0.2080002494301389 Vminpu=0.8 Vmaxpu=1.2 model=1 kW=4.13004 kvar=0.840798942398307 Phases=2

New Load.load_p1ulv17800 conn=wye bus1=p1ulv17800.1.2 kV=0.2080002494301389 Vminpu=0.8 Vmaxpu=1.2 model=1 kW=4.36004 kvar=0.8807707807580453 Phases=2

New Load.load_p1ulv17801 conn=wye bus1=p1ulv17801.1.2 kV=0.2080002494301389 Vminpu=0.8 Vmaxpu=1.2 model=1 kW=4.94005 kvar=1.0005321664784275 Phases=2

New Load.load_p1ulv17802 conn=wye bus1=p1ulv17802.1.2 kV=0.2080002494301389 Vminpu=0.8 Vmaxpu=1.2 model=1 kW=3.85004 kvar=0.7797671809452545 Phases=2

New Load.load_p1ulv17803 conn=wye bus1=p1ulv17803.1.2 kV=0.2080002494301389 Vminpu=0.8 Vmaxpu=1.2 model=1 kW=6.13006 kvar=1.2415506345973724 Phases=2

New Load.load_p1ulv17804 conn=wye bus1=p1ulv17804.1.2 kV=0.2080002494301389 Vminpu=0.8 Vmaxpu=1.2 model=1 kW=4.86005 kvar=0.9894153325398525 Phases=2

New Load.load_p1ulv17806 conn=wye bus1=p1ulv17806.1.2 kV=0.2080002494301389 Vminpu=0.8 Vmaxpu=1.2 model=1 kW=5.28005 kvar=1.069394007270052 Phases=2

New Load.load_p1ulv17808 conn=wye bus1=p1ulv17808.1.2 kV=0.2080002494301389 Vminpu=0.8 Vmaxpu=1.2 model=1 kW=4.09004 kvar=0.8305180443395029 Phases=2

New Load.load_p1ulv17810 conn=wye bus1=p1ulv17810.1.2 kV=0.2080002494301389 Vminpu=0.8 Vmaxpu=1.2 model=1 kW=4.95005 kvar=1.0103189416154545 Phases=2

New Load.load_p1ulv17811 conn=wye bus1=p1ulv17811.1.2 kV=0.2080002494301389 Vminpu=0.8 Vmaxpu=1.2 model=1 kW=4.77005 kvar=0.9710930148829175 Phases=2

New Load.load_p1ulv17812 conn=wye bus1=p1ulv17812.1.2 kV=0.2080002494301389 Vminpu=0.8 Vmaxpu=1.2 model=1 kW=5.06005 kvar=1.030131593999708 Phases=2

New Load.load_p1ulv17814 conn=wye bus1=p1ulv17814.1.2 kV=0.2080002494301389 Vminpu=0.8 Vmaxpu=1.2 model=1 kW=3.9400400000000007 kvar=0.8000592452444024 Phases=2

New Load.load_p1ulv17815 conn=wye bus1=p1ulv17815.1.2 kV=0.2080002494301389 Vminpu=0.8 Vmaxpu=1.2 model=1 kW=2.91003 kvar=0.5893824192907394 Phases=2

New Load.load_p1ulv17816 conn=wye bus1=p1ulv17816.1.2 kV=0.2080002494301389 Vminpu=0.8 Vmaxpu=1.2 model=1 kW=4.05004 kvar=0.8202741461167985 Phases=2

New Load.load_p1ulv17817 conn=wye bus1=p1ulv17817.1.2 kV=0.2080002494301389 Vminpu=0.8 Vmaxpu=1.2 model=1 kW=4.47004 kvar=0.9100165868800613 Phases=2

New Load.load_p1ulv17818 conn=wye bus1=p1ulv17818.1.2 kV=0.2080002494301389 Vminpu=0.8 Vmaxpu=1.2 model=1 kW=4.26004 kvar=0.8694859858061031 Phases=2

New Load.load_p1ulv17819 conn=wye bus1=p1ulv17819.1.2 kV=0.2080002494301389 Vminpu=0.8 Vmaxpu=1.2 model=1 kW=3.42003 kvar=0.6908795546178332 Phases=2

New Load.load_p1ulv17820 conn=wye bus1=p1ulv17820.1.2 kV=0.2080002494301389 Vminpu=0.8 Vmaxpu=1.2 model=1 kW=3.31003 kvar=0.6703963496338274 Phases=2

New Load.load_p1ulv17821 conn=wye bus1=p1ulv17821.1.2 kV=0.2080002494301389 Vminpu=0.8 Vmaxpu=1.2 model=1 kW=3.9400400000000007 kvar=0.8000592452444024 Phases=2

New Load.load_p1ulv17822 conn=wye bus1=p1ulv17822.1.2 kV=0.2080002494301389 Vminpu=0.8 Vmaxpu=1.2 model=1 kW=3.60004 kvar=0.7291334744808246 Phases=2

New Load.load_p1ulv17823 conn=wye bus1=p1ulv17823.1.2 kV=0.2080002494301389 Vminpu=0.8 Vmaxpu=1.2 model=1 kW=4.95005 kvar=0.999958579116559 Phases=2

New Load.load_p1ulv19471 conn=wye bus1=p1ulv19471.1.2.3 kV=0.48 Vminpu=0.8 Vmaxpu=1.2 model=1 kW=43.1504 kvar=8.762062429821539 Phases=3

New Load.load_p1ulv19474 conn=wye bus1=p1ulv19474.1.2.3 kV=0.48 Vminpu=0.8 Vmaxpu=1.2 model=1 kW=99.12099999999998 kvar=20.127377500703137 Phases=3

New Load.load_p1ulv19489 conn=wye bus1=p1ulv19489.1.2.3 kV=0.48 Vminpu=0.8 Vmaxpu=1.2 model=1 kW=98.901 kvar=20.08270459536366 Phases=3

New Load.load_p1ulv19843 conn=wye bus1=p1ulv19843.1.2 kV=0.2080002494301389 Vminpu=0.8 Vmaxpu=1.2 model=1 kW=8.31008 kvar=1.6917769501615778 Phases=2

New Load.load_p1ulv24691 conn=wye bus1=p1ulv24691.1.2 kV=0.2080002494301389 Vminpu=0.8 Vmaxpu=1.2 model=1 kW=7.83008 kvar=1.5899655574571043 Phases=2

New Load.load_p1ulv26034 conn=wye bus1=p1ulv26034.1.2 kV=0.2080002494301389 Vminpu=0.8 Vmaxpu=1.2 model=1 kW=3.72004 kvar=0.7592704872813721 Phases=2

New Load.load_p1ulv26037 conn=wye bus1=p1ulv26037.1.2 kV=0.2080002494301389 Vminpu=0.8 Vmaxpu=1.2 model=1 kW=4.13004 kvar=0.840798942398307 Phases=2

New Load.load_p1ulv26038 conn=wye bus1=p1ulv26038.1.2 kV=0.2080002494301389 Vminpu=0.8 Vmaxpu=1.2 model=1 kW=4.05004 kvar=0.8202741461167985 Phases=2

New Load.load_p1ulv26056 conn=wye bus1=p1ulv26056.1.2 kV=0.2080002494301389 Vminpu=0.8 Vmaxpu=1.2 model=1 kW=4.73005 kvar=0.960477617731872 Phases=2

New Load.load_p1ulv26096 conn=wye bus1=p1ulv26096.1.2 kV=0.2080002494301389 Vminpu=0.8 Vmaxpu=1.2 model=1 kW=3.15003 kvar=0.6396408727569326 Phases=2

New Load.load_p1umv38 conn=wye bus1=p1umv38.1.2.3 kV=12.47 Vminpu=0.8 Vmaxpu=1.2 model=1 kW=999.61 kvar=202.97946775635705 Phases=3

New Load.load_p1ulv26181 conn=wye bus1=p1ulv26181.1.2 kV=0.2080002494301389 Vminpu=0.8 Vmaxpu=1.2 model=1 kW=2.77003 kvar=0.5595731887375364 Phases=2

New Load.load_p1ulv26231 conn=wye bus1=p1ulv26231.1.2 kV=0.2080002494301389 Vminpu=0.8 Vmaxpu=1.2 model=1 kW=4.39004 kvar=0.8891359869084231 Phases=2

New Load.load_p1ulv26236 conn=wye bus1=p1ulv26236.1.2 kV=0.2080002494301389 Vminpu=0.8 Vmaxpu=1.2 model=1 kW=3.61004 kvar=0.7292634355115489 Phases=2

New Load.load_p1ulv26256 conn=wye bus1=p1ulv26256.1.2 kV=0.2080002494301389 Vminpu=0.8 Vmaxpu=1.2 model=1 kW=1.38001 kvar=0.28022298226153225 Phases=2

New Load.load_p1ulv26295 conn=wye bus1=p1ulv26295.1.2 kV=0.2080002494301389 Vminpu=0.8 Vmaxpu=1.2 model=1 kW=4.05004 kvar=0.8202741461167985 Phases=2

New Load.load_p1ulv26300 conn=wye bus1=p1ulv26300.1.2 kV=0.2080002494301389 Vminpu=0.8 Vmaxpu=1.2 model=1 kW=4.09004 kvar=0.8305180443395029 Phases=2

New Load.load_p1ulv26302 conn=wye bus1=p1ulv26302.1.2 kV=0.2080002494301389 Vminpu=0.8 Vmaxpu=1.2 model=1 kW=4.80005 kvar=0.9696571100672596 Phases=2

New Load.load_p1ulv26316 conn=wye bus1=p1ulv26316.1.2 kV=0.2080002494301389 Vminpu=0.8 Vmaxpu=1.2 model=1 kW=4.38004 kvar=0.8894050559233643 Phases=2

New Load.load_p1ulv26372 conn=wye bus1=p1ulv26372.1.2 kV=0.2080002494301389 Vminpu=0.8 Vmaxpu=1.2 model=1 kW=1.89002 kvar=0.37981104658211823 Phases=2

New Load.load_p1ulv26374 conn=wye bus1=p1ulv26374.1.2 kV=0.2080002494301389 Vminpu=0.8 Vmaxpu=1.2 model=1 kW=3.2800300000000004 kvar=0.6694632252334703 Phases=2

New Load.load_p1ulv26389 conn=wye bus1=p1ulv26389.1.2 kV=0.2080002494301389 Vminpu=0.8 Vmaxpu=1.2 model=1 kW=1.77002 kvar=0.36034298554586675 Phases=2

New Load.load_p1ulv26392 conn=wye bus1=p1ulv26392.1.2 kV=0.2080002494301389 Vminpu=0.8 Vmaxpu=1.2 model=1 kW=3.41003 kvar=0.6906498322195993 Phases=2

New Load.load_p1ulv26450 conn=wye bus1=p1ulv26450.1.2 kV=0.2080002494301389 Vminpu=0.8 Vmaxpu=1.2 model=1 kW=5.43005 kvar=1.0997742311487098 Phases=2

New Load.load_p1ulv26466 conn=wye bus1=p1ulv26466.1.2 kV=0.2080002494301389 Vminpu=0.8 Vmaxpu=1.2 model=1 kW=2.98003 kvar=0.6097828960881785 Phases=2

New Load.load_p1ulv26514 conn=wye bus1=p1ulv26514.1.2 kV=0.2080002494301389 Vminpu=0.8 Vmaxpu=1.2 model=1 kW=3.06003 kvar=0.6197626431693976 Phases=2

New Load.load_p1ulv26580 conn=wye bus1=p1ulv26580.1.2 kV=0.2080002494301389 Vminpu=0.8 Vmaxpu=1.2 model=1 kW=3.0100300000000004 kvar=0.6096359018765115 Phases=2

New Load.load_p1ulv26607 conn=wye bus1=p1ulv26607.1.2 kV=0.2080002494301389 Vminpu=0.8 Vmaxpu=1.2 model=1 kW=3.3000300000000005 kvar=0.6700996718520332 Phases=2

New Load.load_p1ulv26630 conn=wye bus1=p1ulv26630.1.2 kV=0.2080002494301389 Vminpu=0.8 Vmaxpu=1.2 model=1 kW=4.450040000000001 kvar=0.898951662187625 Phases=2

New Load.load_p1ulv26633 conn=wye bus1=p1ulv26633.1.2 kV=0.2080002494301389 Vminpu=0.8 Vmaxpu=1.2 model=1 kW=4.07004 kvar=0.8307064585474014 Phases=2

New Load.load_p1ulv26672 conn=wye bus1=p1ulv26672.1.2 kV=0.2080002494301389 Vminpu=0.8 Vmaxpu=1.2 model=1 kW=4.47004 kvar=0.9100165868800613 Phases=2

New Load.load_p1ulv26674 conn=wye bus1=p1ulv26674.1.2 kV=0.2080002494301389 Vminpu=0.8 Vmaxpu=1.2 model=1 kW=4.12004 kvar=0.8409115972996914 Phases=2

New Load.load_p1ulv26693 conn=wye bus1=p1ulv26693.1.2 kV=0.2080002494301389 Vminpu=0.8 Vmaxpu=1.2 model=1 kW=3.52004 kvar=0.7092301716051945 Phases=2

New Load.load_p1ulv26730 conn=wye bus1=p1ulv26730.1.2 kV=0.2080002494301389 Vminpu=0.8 Vmaxpu=1.2 model=1 kW=3.85004 kvar=0.7797671809452545 Phases=2

New Load.load_p1ulv26734 conn=wye bus1=p1ulv26734.1.2 kV=0.2080002494301389 Vminpu=0.8 Vmaxpu=1.2 model=1 kW=1.38001 kvar=0.28022298226153225 Phases=2

New Load.load_p1ulv26736 conn=wye bus1=p1ulv26736.1.2 kV=0.2080002494301389 Vminpu=0.8 Vmaxpu=1.2 model=1 kW=3.47003 kvar=0.6991539790386396 Phases=2

New Load.load_p1ulv26756 conn=wye bus1=p1ulv26756.1.2 kV=0.2080002494301389 Vminpu=0.8 Vmaxpu=1.2 model=1 kW=3.3000300000000005 kvar=0.6700996718520332 Phases=2

New Load.load_p1ulv26803 conn=wye bus1=p1ulv26803.1.2 kV=0.2080002494301389 Vminpu=0.8 Vmaxpu=1.2 model=1 kW=4.36004 kvar=0.8898962633106831 Phases=2

New Load.load_p1ulv26824 conn=wye bus1=p1ulv26824.1.2 kV=0.2080002494301389 Vminpu=0.8 Vmaxpu=1.2 model=1 kW=3.34003 kvar=0.679967673818805 Phases=2

New Load.load_p1ulv26830 conn=wye bus1=p1ulv26830.1.2 kV=0.2080002494301389 Vminpu=0.8 Vmaxpu=1.2 model=1 kW=1.38001 kvar=0.28022298226153225 Phases=2

New Load.load_p1ulv26845 conn=wye bus1=p1ulv26845.1.2.3 kV=0.48 Vminpu=0.8 Vmaxpu=1.2 model=1 kW=62.70060000000001 kvar=12.73189985694845 Phases=3

New Load.load_p1ulv26847 conn=wye bus1=p1ulv26847.1.2 kV=0.2080002494301389 Vminpu=0.8 Vmaxpu=1.2 model=1 kW=3.48003 kvar=0.71028378024263 Phases=2

New Load.load_p1ulv26888 conn=wye bus1=p1ulv26888.1.2.3 kV=0.48 Vminpu=0.8 Vmaxpu=1.2 model=1 kW=77.7508 kvar=15.787973311222341 Phases=3

New Load.load_p1ulv26891 conn=wye bus1=p1ulv26891.1.2 kV=0.2080002494301389 Vminpu=0.8 Vmaxpu=1.2 model=1 kW=3.55004 kvar=0.7208663675971405 Phases=2

New Load.load_p1ulv26893 conn=wye bus1=p1ulv26893.1.2 kV=0.2080002494301389 Vminpu=0.8 Vmaxpu=1.2 model=1 kW=4.90005 kvar=0.9898580894334593 Phases=2

New Load.load_p1ulv26913 conn=wye bus1=p1ulv26913.1.2 kV=0.2080002494301389 Vminpu=0.8 Vmaxpu=1.2 model=1 kW=3.78004 kvar=0.7695454848435601 Phases=2

New Load.load_p1ulv26964 conn=wye bus1=p1ulv26964.1.2 kV=0.2080002494301389 Vminpu=0.8 Vmaxpu=1.2 model=1 kW=5.380050000000001 kvar=1.0896474898558242 Phases=2

New Load.load_p1ulv26966 conn=wye bus1=p1ulv26966.1.2 kV=0.2080002494301389 Vminpu=0.8 Vmaxpu=1.2 model=1 kW=4.16004 kvar=0.8403688220256462 Phases=2

New Load.load_p1ulv26968 conn=wye bus1=p1ulv26968.1.2 kV=0.2080002494301389 Vminpu=0.8 Vmaxpu=1.2 model=1 kW=7.94008 kvar=1.608142720096362 Phases=2

New Load.load_p1ulv26992 conn=wye bus1=p1ulv26992.1.2.3 kV=0.48 Vminpu=0.8 Vmaxpu=1.2 model=1 kW=312.923 kvar=63.54172526157453 Phases=3

New Load.load_p1ulv27021 conn=wye bus1=p1ulv27021.1.2 kV=0.2080002494301389 Vminpu=0.8 Vmaxpu=1.2 model=1 kW=4.36004 kvar=0.8898962633106831 Phases=2

New Load.load_p1ulv27035 conn=wye bus1=p1ulv27035.1.2 kV=0.2080002494301389 Vminpu=0.8 Vmaxpu=1.2 model=1 kW=3.55004 kvar=0.7208663675971405 Phases=2

New Load.load_p1ulv27036 conn=wye bus1=p1ulv27036.1.2 kV=0.2080002494301389 Vminpu=0.8 Vmaxpu=1.2 model=1 kW=4.27004 kvar=0.869300325420206 Phases=2

New Load.load_p1ulv27055 conn=wye bus1=p1ulv27055.1.2.3 kV=0.48 Vminpu=0.8 Vmaxpu=1.2 model=1 kW=136.80100000000002 kvar=27.77862783339242 Phases=3

New Load.load_p1ulv27059 conn=wye bus1=p1ulv27059.1.2 kV=0.2080002494301389 Vminpu=0.8 Vmaxpu=1.2 model=1 kW=5.53006 kvar=1.1200297390827405 Phases=2

New Load.load_p1ulv27105 conn=wye bus1=p1ulv27105.1.2 kV=0.2080002494301389 Vminpu=0.8 Vmaxpu=1.2 model=1 kW=4.70005 kvar=0.959293247854005 Phases=2

New Load.load_p1ulv27107 conn=wye bus1=p1ulv27107.1.2 kV=0.2080002494301389 Vminpu=0.8 Vmaxpu=1.2 model=1 kW=2.97003 kvar=0.5999751474699353 Phases=2

New Load.load_p1ulv27110 conn=wye bus1=p1ulv27110.1.2 kV=0.2080002494301389 Vminpu=0.8 Vmaxpu=1.2 model=1 kW=3.51004 kvar=0.7109053401536299 Phases=2

New Load.load_p1ulv27126 conn=wye bus1=p1ulv27126.1.2 kV=0.2080002494301389 Vminpu=0.8 Vmaxpu=1.2 model=1 kW=3.7300400000000002 kvar=0.7593664194785962 Phases=2

New Load.load_p1ulv27130 conn=wye bus1=p1ulv27130.1.2 kV=0.2080002494301389 Vminpu=0.8 Vmaxpu=1.2 model=1 kW=2.90003 kvar=0.5903918986071232 Phases=2

New Load.load_p1ulv27178 conn=wye bus1=p1ulv27178.1.2 kV=0.2080002494301389 Vminpu=0.8 Vmaxpu=1.2 model=1 kW=3.62004 kvar=0.7407437090079797 Phases=2

New Load.load_p1ulv27181 conn=wye bus1=p1ulv27181.1.2 kV=0.2080002494301389 Vminpu=0.8 Vmaxpu=1.2 model=1 kW=3.50004 kvar=0.7107134345654403 Phases=2

New Load.load_p1ulv27236 conn=wye bus1=p1ulv27236.1.2 kV=0.2080002494301389 Vminpu=0.8 Vmaxpu=1.2 model=1 kW=4.13004 kvar=0.840798942398307 Phases=2

New Load.load_p1ulv27238 conn=wye bus1=p1ulv27238.1.2 kV=0.2080002494301389 Vminpu=0.8 Vmaxpu=1.2 model=1 kW=3.78004 kvar=0.7695454848435601 Phases=2

New Load.load_p1ulv27282 conn=wye bus1=p1ulv27282.1.2 kV=0.2080002494301389 Vminpu=0.8 Vmaxpu=1.2 model=1 kW=6.28006 kvar=1.2686336247849492 Phases=2

New Load.load_p1ulv27283 conn=wye bus1=p1ulv27283.1.2 kV=0.2080002494301389 Vminpu=0.8 Vmaxpu=1.2 model=1 kW=3.82004 kvar=0.7796807647859518 Phases=2

New Load.load_p1ulv27347 conn=wye bus1=p1ulv27347.1.2 kV=0.2080002494301389 Vminpu=0.8 Vmaxpu=1.2 model=1 kW=3.70004 kvar=0.7493869570665965 Phases=2

New Load.load_p1ulv27349 conn=wye bus1=p1ulv27349.1.2 kV=0.2080002494301389 Vminpu=0.8 Vmaxpu=1.2 model=1 kW=4.07004 kvar=0.8307064585474014 Phases=2

New Load.load_p1ulv27404 conn=wye bus1=p1ulv27404.1.2 kV=0.2080002494301389 Vminpu=0.8 Vmaxpu=1.2 model=1 kW=3.23003 kvar=0.6592580864811803 Phases=2

New Load.load_p1ulv27412 conn=wye bus1=p1ulv27412.1.2 kV=0.2080002494301389 Vminpu=0.8 Vmaxpu=1.2 model=1 kW=3.33003 kvar=0.6796683639857601 Phases=2

New Load.load_p1ulv27685 conn=wye bus1=p1ulv27685.1.2 kV=0.2080002494301389 Vminpu=0.8 Vmaxpu=1.2 model=1 kW=4.18004 kvar=0.8509780077632708 Phases=2

New Load.load_p1ulv27706 conn=wye bus1=p1ulv27706.1.2 kV=0.2080002494301389 Vminpu=0.8 Vmaxpu=1.2 model=1 kW=3.65004 kvar=0.7392602157737106 Phases=2

New Load.load_p1ulv27746 conn=wye bus1=p1ulv27746.1.2 kV=0.2080002494301389 Vminpu=0.8 Vmaxpu=1.2 model=1 kW=3.9800400000000002 kvar=0.8102617463034154 Phases=2

New Load.load_p1ulv27770 conn=wye bus1=p1ulv27770.1.2 kV=0.2080002494301389 Vminpu=0.8 Vmaxpu=1.2 model=1 kW=3.51004 kvar=0.7109053401536299 Phases=2

New Load.load_p1ulv27818 conn=wye bus1=p1ulv27818.1.2 kV=0.2080002494301389 Vminpu=0.8 Vmaxpu=1.2 model=1 kW=4.11004 kvar=0.8410090147543001 Phases=2

New Load.load_p1ulv27838 conn=wye bus1=p1ulv27838.1.2 kV=0.2080002494301389 Vminpu=0.8 Vmaxpu=1.2 model=1 kW=4.56005 kvar=0.9307188593475932 Phases=2

New Load.load_p1ulv27892 conn=wye bus1=p1ulv27892.1.2 kV=0.2080002494301389 Vminpu=0.8 Vmaxpu=1.2 model=1 kW=2.40002 kvar=0.4898507421654172 Phases=2

New Load.load_p1ulv27894 conn=wye bus1=p1ulv27894.1.2 kV=0.2080002494301389 Vminpu=0.8 Vmaxpu=1.2 model=1 kW=3.36003 kvar=0.6805230909267135 Phases=2

New Load.load_p1ulv27912 conn=wye bus1=p1ulv27912.1.2 kV=0.2080002494301389 Vminpu=0.8 Vmaxpu=1.2 model=1 kW=3.41003 kvar=0.6906498322195993 Phases=2

New Load.load_p1ulv27955 conn=wye bus1=p1ulv27955.1.2 kV=0.2080002494301389 Vminpu=0.8 Vmaxpu=1.2 model=1 kW=5.640060000000001 kvar=1.151151897424806 Phases=2

New Load.load_p1ulv27959 conn=wye bus1=p1ulv27959.1.2 kV=0.2080002494301389 Vminpu=0.8 Vmaxpu=1.2 model=1 kW=3.67004 kvar=0.7394527047982206 Phases=2

New Load.load_p1ulv28023 conn=wye bus1=p1ulv28023.1.2 kV=0.2080002494301389 Vminpu=0.8 Vmaxpu=1.2 model=1 kW=3.08003 kvar=0.6302452033833459 Phases=2

New Load.load_p1ulv28031 conn=wye bus1=p1ulv28031.1.2 kV=0.2080002494301389 Vminpu=0.8 Vmaxpu=1.2 model=1 kW=3.79004 kvar=0.7696004461493017 Phases=2

New Load.load_p1umv42 conn=wye bus1=p1umv42.1.2.3 kV=12.47 Vminpu=0.8 Vmaxpu=1.2 model=1 kW=996.87 kvar=202.4230870262199 Phases=3

New Load.load_p1ulv28100 conn=wye bus1=p1ulv28100.1.2 kV=0.2080002494301389 Vminpu=0.8 Vmaxpu=1.2 model=1 kW=5.74006 kvar=1.1685689187762893 Phases=2

New Load.load_p1ulv28102 conn=wye bus1=p1ulv28102.1.2 kV=0.2080002494301389 Vminpu=0.8 Vmaxpu=1.2 model=1 kW=3.95004 kvar=0.8000206635310265 Phases=2

New Load.load_p1ulv28121 conn=wye bus1=p1ulv28121.1.2 kV=0.2080002494301389 Vminpu=0.8 Vmaxpu=1.2 model=1 kW=3.89004 kvar=0.789906312212702 Phases=2

New Load.load_p1ulv28124 conn=wye bus1=p1ulv28124.1.2 kV=0.2080002494301389 Vminpu=0.8 Vmaxpu=1.2 model=1 kW=1.45001 kvar=0.28985337445853987 Phases=2

New Load.load_p1ulv28168 conn=wye bus1=p1ulv28168.1.2 kV=0.2080002494301389 Vminpu=0.8 Vmaxpu=1.2 model=1 kW=4.670050000000001 kvar=0.9507348841529898 Phases=2

New Load.load_p1ulv28174 conn=wye bus1=p1ulv28174.1.2 kV=0.2080002494301389 Vminpu=0.8 Vmaxpu=1.2 model=1 kW=2.71003 kvar=0.5502950620779706 Phases=2

New Load.load_p1ulv28176 conn=wye bus1=p1ulv28176.1.2 kV=0.2080002494301389 Vminpu=0.8 Vmaxpu=1.2 model=1 kW=3.95004 kvar=0.8000206635310265 Phases=2

New Load.load_p1ulv28239 conn=wye bus1=p1ulv28239.1.2 kV=0.2080002494301389 Vminpu=0.8 Vmaxpu=1.2 model=1 kW=4.58005 kvar=0.9300188186367714 Phases=2

New Load.load_p1ulv28262 conn=wye bus1=p1ulv28262.1.2 kV=0.2080002494301389 Vminpu=0.8 Vmaxpu=1.2 model=1 kW=3.45003 kvar=0.7005584709471337 Phases=2

New Load.load_p1ulv28270 conn=wye bus1=p1ulv28270.1.2 kV=0.2080002494301389 Vminpu=0.8 Vmaxpu=1.2 model=1 kW=1.59002 kvar=0.3203628815171678 Phases=2

New Load.load_p1ulv28272 conn=wye bus1=p1ulv28272.1.2 kV=0.2080002494301389 Vminpu=0.8 Vmaxpu=1.2 model=1 kW=3.87004 kvar=0.7898859035382418 Phases=2

New Load.load_p1ulv28288 conn=wye bus1=p1ulv28288.1.2 kV=0.2080002494301389 Vminpu=0.8 Vmaxpu=1.2 model=1 kW=4.08004 kvar=0.8306198770333432 Phases=2

New Load.load_p1ulv28332 conn=wye bus1=p1ulv28332.1.2 kV=0.2080002494301389 Vminpu=0.8 Vmaxpu=1.2 model=1 kW=1.38001 kvar=0.28022298226153225 Phases=2

New Load.load_p1ulv28334 conn=wye bus1=p1ulv28334.1.2 kV=0.2080002494301389 Vminpu=0.8 Vmaxpu=1.2 model=1 kW=3.82004 kvar=0.7796807647859518 Phases=2

New Load.load_p1ulv28402 conn=wye bus1=p1ulv28402.1.2 kV=0.2080002494301389 Vminpu=0.8 Vmaxpu=1.2 model=1 kW=1.38001 kvar=0.28022298226153225 Phases=2

New Load.load_p1ulv28420 conn=wye bus1=p1ulv28420.1.2 kV=0.2080002494301389 Vminpu=0.8 Vmaxpu=1.2 model=1 kW=4.01004 kvar=0.810067352976347 Phases=2

New Load.load_p1ulv28467 conn=wye bus1=p1ulv28467.1.2 kV=0.2080002494301389 Vminpu=0.8 Vmaxpu=1.2 model=1 kW=3.47003 kvar=0.6991539790386396 Phases=2

New Load.load_p1ulv28485 conn=wye bus1=p1ulv28485.1.2 kV=0.2080002494301389 Vminpu=0.8 Vmaxpu=1.2 model=1 kW=4.72005 kvar=0.9609139495179535 Phases=2

New Load.load_p1ulv28487 conn=wye bus1=p1ulv28487.1.2 kV=0.2080002494301389 Vminpu=0.8 Vmaxpu=1.2 model=1 kW=4.05004 kvar=0.8202741461167985 Phases=2

New Load.load_p1ulv28548 conn=wye bus1=p1ulv28548.1.2 kV=0.2080002494301389 Vminpu=0.8 Vmaxpu=1.2 model=1 kW=3.76004 kvar=0.7595649045608481 Phases=2

New Load.load_p1ulv28552 conn=wye bus1=p1ulv28552.1.2 kV=0.2080002494301389 Vminpu=0.8 Vmaxpu=1.2 model=1 kW=4.43004 kvar=0.8995579889550643 Phases=2

New Load.load_p1ulv28619 conn=wye bus1=p1ulv28619.1.2 kV=0.2080002494301389 Vminpu=0.8 Vmaxpu=1.2 model=1 kW=4.29004 kvar=0.8711297764663039 Phases=2

New Load.load_p1ulv28637 conn=wye bus1=p1ulv28637.1.2 kV=0.2080002494301389 Vminpu=0.8 Vmaxpu=1.2 model=1 kW=2.98003 kvar=0.6097828960881785 Phases=2

New Load.load_p1ulv28640 conn=wye bus1=p1ulv28640.1.2 kV=0.2080002494301389 Vminpu=0.8 Vmaxpu=1.2 model=1 kW=3.21003 kvar=0.6501428670480555 Phases=2

New Load.load_p1ulv28689 conn=wye bus1=p1ulv28689.1.2 kV=0.2080002494301389 Vminpu=0.8 Vmaxpu=1.2 model=1 kW=4.51005 kvar=0.911074269905281 Phases=2

New Load.load_p1ulv28691 conn=wye bus1=p1ulv28691.1.2 kV=0.2080002494301389 Vminpu=0.8 Vmaxpu=1.2 model=1 kW=3.25003 kvar=0.659946738820333 Phases=2

New Load.load_p1ulv28750 conn=wye bus1=p1ulv28750.1.2 kV=0.2080002494301389 Vminpu=0.8 Vmaxpu=1.2 model=1 kW=3.79004 kvar=0.7696004461493017 Phases=2

New Load.load_p1ulv28756 conn=wye bus1=p1ulv28756.1.2 kV=0.2080002494301389 Vminpu=0.8 Vmaxpu=1.2 model=1 kW=3.81004 kvar=0.769665394243948 Phases=2

New Load.load_p1ulv28758 conn=wye bus1=p1ulv28758.1.2 kV=0.2080002494301389 Vminpu=0.8 Vmaxpu=1.2 model=1 kW=2.89003 kvar=0.5898631429656088 Phases=2

New Load.load_p1ulv28775 conn=wye bus1=p1ulv28775.1.2 kV=0.2080002494301389 Vminpu=0.8 Vmaxpu=1.2 model=1 kW=1.38001 kvar=0.28022298226153225 Phases=2

New Load.load_p1ulv28812 conn=wye bus1=p1ulv28812.1.2 kV=0.2080002494301389 Vminpu=0.8 Vmaxpu=1.2 model=1 kW=1.38001 kvar=0.28022298226153225 Phases=2

New Load.load_p1ulv28819 conn=wye bus1=p1ulv28819.1.2 kV=0.2080002494301389 Vminpu=0.8 Vmaxpu=1.2 model=1 kW=3.95004 kvar=0.8000206635310265 Phases=2

New Load.load_p1ulv28836 conn=wye bus1=p1ulv28836.1.2 kV=0.2080002494301389 Vminpu=0.8 Vmaxpu=1.2 model=1 kW=4.10004 kvar=0.8304008874096844 Phases=2

New Load.load_p1ulv28877 conn=wye bus1=p1ulv28877.1.2 kV=0.2080002494301389 Vminpu=0.8 Vmaxpu=1.2 model=1 kW=4.61005 kvar=0.9409239980998833 Phases=2

New Load.load_p1ulv28925 conn=wye bus1=p1ulv28925.1.2 kV=0.2080002494301389 Vminpu=0.8 Vmaxpu=1.2 model=1 kW=5.12005 kvar=1.0396704953791336 Phases=2

New Load.load_p1ulv28926 conn=wye bus1=p1ulv28926.1.2 kV=0.2080002494301389 Vminpu=0.8 Vmaxpu=1.2 model=1 kW=3.61004 kvar=0.7292634355115489 Phases=2

New Load.load_p1ulv28929 conn=wye bus1=p1ulv27110.1.2 kV=0.2080002494301389 Vminpu=0.8 Vmaxpu=1.2 model=1 kW=3.56004 kvar=0.7191629458284491 Phases=2

New Load.load_p1ulv28942 conn=wye bus1=p1ulv28942.1.2 kV=0.2080002494301389 Vminpu=0.8 Vmaxpu=1.2 model=1 kW=3.7500400000000003 kvar=0.7595136983594827 Phases=2

New Load.load_p1ulv28988 conn=wye bus1=p1ulv28988.1.2 kV=0.2080002494301389 Vminpu=0.8 Vmaxpu=1.2 model=1 kW=3.37003 kvar=0.6807790649347335 Phases=2

New Load.load_p1ulv28990 conn=wye bus1=p1ulv28990.1.2 kV=0.2080002494301389 Vminpu=0.8 Vmaxpu=1.2 model=1 kW=3.57004 kvar=0.7305125553603958 Phases=2

New Load.load_p1ulv29012 conn=wye bus1=p1ulv29012.1.2 kV=0.2080002494301389 Vminpu=0.8 Vmaxpu=1.2 model=1 kW=4.36004 kvar=0.8898962633106831 Phases=2

New Load.load_p1ulv29048 conn=wye bus1=p1ulv29048.1.2 kV=0.2080002494301389 Vminpu=0.8 Vmaxpu=1.2 model=1 kW=3.3000300000000005 kvar=0.6700996718520332 Phases=2

New Load.load_p1ulv29054 conn=wye bus1=p1ulv29054.1.2 kV=0.2080002494301389 Vminpu=0.8 Vmaxpu=1.2 model=1 kW=4.15004 kvar=0.8405276287025704 Phases=2

New Load.load_p1ulv29330 conn=wye bus1=p1ulv29330.1.2 kV=0.2080002494301389 Vminpu=0.8 Vmaxpu=1.2 model=1 kW=3.88004 kvar=0.7899036155734878 Phases=2

New Load.load_p1ulv29334 conn=wye bus1=p1ulv29334.1.2 kV=0.2080002494301389 Vminpu=0.8 Vmaxpu=1.2 model=1 kW=4.73005 kvar=0.960477617731872 Phases=2

New Load.load_p1ulv29355 conn=wye bus1=p1ulv29355.1.2 kV=0.2080002494301389 Vminpu=0.8 Vmaxpu=1.2 model=1 kW=3.6900400000000007 kvar=0.7492945800859013 Phases=2

New Load.load_p1ulv29398 conn=wye bus1=p1ulv29398.1.2 kV=0.2080002494301389 Vminpu=0.8 Vmaxpu=1.2 model=1 kW=4.21004 kvar=0.850469311708746 Phases=2

New Load.load_p1ulv29400 conn=wye bus1=p1ulv29400.1.2 kV=0.2080002494301389 Vminpu=0.8 Vmaxpu=1.2 model=1 kW=1.38001 kvar=0.28022298226153225 Phases=2

New Load.load_p1ulv29462 conn=wye bus1=p1ulv29462.1.2 kV=0.2080002494301389 Vminpu=0.8 Vmaxpu=1.2 model=1 kW=4.91005 kvar=0.9995943979048163 Phases=2

New Load.load_p1ulv29464 conn=wye bus1=p1ulv29464.1.2 kV=0.2080002494301389 Vminpu=0.8 Vmaxpu=1.2 model=1 kW=3.97004 kvar=0.8102961810428216 Phases=2

New Load.load_p1ulv29465 conn=wye bus1=p1ulv29465.1.2 kV=0.2080002494301389 Vminpu=0.8 Vmaxpu=1.2 model=1 kW=4.34004 kvar=0.8790092456155372 Phases=2

New Load.load_p1ulv29484 conn=wye bus1=p1ulv29484.1.2 kV=0.2080002494301389 Vminpu=0.8 Vmaxpu=1.2 model=1 kW=3.97004 kvar=0.8102961810428216 Phases=2

New Load.load_p1ulv29522 conn=wye bus1=p1ulv29522.1.2 kV=0.2080002494301389 Vminpu=0.8 Vmaxpu=1.2 model=1 kW=2.91003 kvar=0.5893824192907394 Phases=2

New Load.load_p1umv47 conn=wye bus1=p1umv47.1.2.3 kV=12.47 Vminpu=0.8 Vmaxpu=1.2 model=1 kW=2200.03 kvar=446.73514515462847 Phases=3

New Load.load_p1ulv29549 conn=wye bus1=p1ulv29549.1.2 kV=0.2080002494301389 Vminpu=0.8 Vmaxpu=1.2 model=1 kW=4.25004 kvar=0.8607811112883423 Phases=2

New Load.load_p1ulv29591 conn=wye bus1=p1ulv29591.1.2 kV=0.2080002494301389 Vminpu=0.8 Vmaxpu=1.2 model=1 kW=4.200040000000001 kvar=0.8506543699954566 Phases=2

New Load.load_p1ulv29596 conn=wye bus1=p1ulv29596.1.2 kV=0.2080002494301389 Vminpu=0.8 Vmaxpu=1.2 model=1 kW=5.07005 kvar=1.0295175623474335 Phases=2

New Load.load_p1ulv29598 conn=wye bus1=p1ulv29598.1.2 kV=0.2080002494301389 Vminpu=0.8 Vmaxpu=1.2 model=1 kW=3.79004 kvar=0.7696004461493017 Phases=2

New Load.load_p1ulv29617 conn=wye bus1=p1ulv29617.1.2 kV=0.2080002494301389 Vminpu=0.8 Vmaxpu=1.2 model=1 kW=4.33004 kvar=0.879252122891664 Phases=2

New Load.load_p1ulv29661 conn=wye bus1=p1ulv29661.1.2.3 kV=0.48 Vminpu=0.8 Vmaxpu=1.2 model=1 kW=29.550299999999996 kvar=6.000444339333017 Phases=3

New Load.load_p1ulv29667 conn=wye bus1=p1ulv29667.1.2 kV=0.2080002494301389 Vminpu=0.8 Vmaxpu=1.2 model=1 kW=3.91004 kvar=0.7898663736101474 Phases=2

New Load.load_p1ulv29670 conn=wye bus1=p1ulv29670.1.2 kV=0.2080002494301389 Vminpu=0.8 Vmaxpu=1.2 model=1 kW=4.06004 kvar=0.8201678426594468 Phases=2

New Load.load_p1ulv29689 conn=wye bus1=p1ulv29689.1.2 kV=0.2080002494301389 Vminpu=0.8 Vmaxpu=1.2 model=1 kW=5.02005 kvar=1.0193646293157332 Phases=2

New Load.load_p1ulv29703 conn=wye bus1=p1ulv29703.1.2 kV=0.2080002494301389 Vminpu=0.8 Vmaxpu=1.2 model=1 kW=3.2600300000000004 kvar=0.6602696083409414 Phases=2

New Load.load_p1ulv29743 conn=wye bus1=p1ulv29743.1.2 kV=0.2080002494301389 Vminpu=0.8 Vmaxpu=1.2 model=1 kW=3.58004 kvar=0.7306960987749602 Phases=2

New Load.load_p1ulv29748 conn=wye bus1=p1ulv29748.1.2 kV=0.2080002494301389 Vminpu=0.8 Vmaxpu=1.2 model=1 kW=5.49005 kvar=1.1090438676940364 Phases=2

New Load.load_p1ulv29771 conn=wye bus1=p1ulv29771.1.2 kV=0.2080002494301389 Vminpu=0.8 Vmaxpu=1.2 model=1 kW=4.46004 kvar=0.910306540815263 Phases=2

New Load.load_p1ulv29810 conn=wye bus1=p1ulv29810.1.2 kV=0.2080002494301389 Vminpu=0.8 Vmaxpu=1.2 model=1 kW=3.3000300000000005 kvar=0.6700996718520332 Phases=2

New Load.load_p1ulv29812 conn=wye bus1=p1ulv29812.1.2 kV=0.2080002494301389 Vminpu=0.8 Vmaxpu=1.2 model=1 kW=3.44003 kvar=0.7003258045487328 Phases=2

New Load.load_p1ulv29815 conn=wye bus1=p1ulv29815.1.2 kV=0.2080002494301389 Vminpu=0.8 Vmaxpu=1.2 model=1 kW=3.44003 kvar=0.7003258045487328 Phases=2

New Load.load_p1ulv29816 conn=wye bus1=p1ulv29816.1.2 kV=0.2080002494301389 Vminpu=0.8 Vmaxpu=1.2 model=1 kW=3.76004 kvar=0.7595649045608481 Phases=2

New Load.load_p1ulv29831 conn=wye bus1=p1ulv29831.1.2 kV=0.2080002494301389 Vminpu=0.8 Vmaxpu=1.2 model=1 kW=4.31004 kvar=0.8796911245583932 Phases=2

New Load.load_p1ulv29878 conn=wye bus1=p1ulv29878.1.2 kV=0.2080002494301389 Vminpu=0.8 Vmaxpu=1.2 model=1 kW=3.58004 kvar=0.7306960987749602 Phases=2

New Load.load_p1ulv29913 conn=wye bus1=p1ulv29913.1.2 kV=0.2080002494301389 Vminpu=0.8 Vmaxpu=1.2 model=1 kW=3.66004 kvar=0.7393639251946486 Phases=2

New Load.load_p1ulv29984 conn=wye bus1=p1ulv29984.1.2 kV=0.2080002494301389 Vminpu=0.8 Vmaxpu=1.2 model=1 kW=5.890060000000001 kvar=1.199106114871181 Phases=2

New Load.load_p1ulv30051 conn=wye bus1=p1ulv30051.1.2 kV=0.2080002494301389 Vminpu=0.8 Vmaxpu=1.2 model=1 kW=2.8000300000000005 kvar=0.5700337678771953 Phases=2

...